 ****** HSPICE -- G-2012.06-SP1 64-BIT (Aug 27 2012) RHEL64 ******              
  Copyright (C) 2012 Synopsys, Inc. All Rights Reserved.                        
  Unpublished-rights reserved under US copyright laws.
  This program is protected by law and is subject to the
  terms and conditions of the license agreement from Synopsys.
  Use of this program is your acceptance to be bound by the
  license agreement. HSPICE is the trademark of Synopsys, Inc.
  Input File: ./circuit_behavior/3stage.sp                                      
  Command line options: -C -i ./circuit_behavior/3stage.sp -o ./circuit_behavior/3stage
 Init: read install configuration file: /apps/EDAs/hspice2012.06-sp1/hspice/meta.cfg
  **warning** (./circuit_behavior/opamp.sp:1) Global net name, "gnd", in subckt pin list. The pin will be connected to the local net. Recommend to not use global net names in subckt pin lists.
1****** HSPICE -- G-2012.06-SP1 64-BIT (Aug 27 2012) RHEL64 ******              
 ******  
 .title project: three-stage opamp

  ******  circuit name directory
 circuit number to circuit name directory
   number circuitname                     definition         multiplier
        0 main circuit
        1 xac.                            opamp              1.00 
  
      
 *****************************************************************
 ******  option summary
 ******
 runlvl  = 3         bypass  = 2         
  Opening plot unit= 15
 file=./circuit_behavior/3stage.pa0

1****** HSPICE -- G-2012.06-SP1 64-BIT (Aug 27 2012) RHEL64 ******              
 ******  
 .title project: three-stage opamp

  ******  operating point information tnom=  25.000 temp=  27.000 *****
 ***** operating point status is all       simulation time is     0.     
    node    =voltage      node    =voltage      node    =voltage

 +0:vin_ac  =   0.      0:vo_ac   =   0.      1:1       =   0.     
 +1:2       =   0.      1:1_vo    =   0.      1:2_vo    =   0.     
 +1:1_gnd   =   0.     


 **** voltage sources

 subckt             
 element  0:vin     
  volts      0.     
  current    0.     
  power      0.     

     total voltage source power dissipation=    0.            watts



 **** resistors

 subckt   xac        xac        xac        xac        xac        xac       
 element  1:rprs_in_ 1:rprs_1_2 1:rprs_2_v 1:rprs_in_ 1:rprs_in_ 1:r_1_1_vo
  r value  150.4178k  182.5668k  901.9628k   75.4010k   71.7866k  792.6320k
  v drop     0.         0.         0.         0.         0.         0.     
  current    0.         0.         0.         0.         0.         0.     
  power      0.         0.         0.         0.         0.         0.     

 subckt   xac        xac        xac       
 element  1:r_2_2_vo 1:r_1_1_gn 1:r_l     
  r value  890.8277k  761.6023k  150.0000k
  v drop     0.         0.         0.     
  current    0.         0.         0.     
  power      0.         0.         0.     


 **** voltage-controlled current sources


 subckt     xac        xac        xac        xac        xac     
 element  1:g_in_1   1:g_1_2    1:g_2_vo   1:g_in_2_f 1:g_in_vo_
  v drop     0.         0.         0.         0.         0.     
  current    0.         0.         0.         0.         0.     



 ******  
 .title project: three-stage opamp

  ******  ac analysis tnom=  25.000 temp=  27.000 *****
x

        freq    volt db    
                   vo_ac   
    1.00000      70.0654   
    1.02329      70.0654   
    1.04713      70.0654   
    1.07152      70.0654   
    1.09648      70.0654   
    1.12202      70.0654   
    1.14815      70.0654   
    1.17490      70.0654   
    1.20226      70.0654   
    1.23027      70.0654   
    1.25893      70.0654   
    1.28825      70.0654   
    1.31826      70.0654   
    1.34896      70.0654   
    1.38038      70.0654   
    1.41254      70.0654   
    1.44544      70.0654   
    1.47911      70.0654   
    1.51356      70.0654   
    1.54882      70.0654   
    1.58489      70.0654   
    1.62181      70.0654   
    1.65959      70.0654   
    1.69824      70.0654   
    1.73780      70.0654   
    1.77828      70.0654   
    1.81970      70.0654   
    1.86209      70.0653   
    1.90546      70.0653   
    1.94984      70.0653   
    1.99526      70.0653   
    2.04174      70.0653   
    2.08930      70.0653   
    2.13796      70.0653   
    2.18776      70.0653   
    2.23872      70.0653   
    2.29087      70.0653   
    2.34423      70.0653   
    2.39883      70.0653   
    2.45471      70.0652   
    2.51189      70.0652   
    2.57040      70.0652   
    2.63027      70.0652   
    2.69153      70.0652   
    2.75423      70.0652   
    2.81838      70.0652   
    2.88403      70.0652   
    2.95121      70.0651   
    3.01995      70.0651   
    3.09030      70.0651   
    3.16228      70.0651   
    3.23594      70.0651   
    3.31131      70.0650   
    3.38844      70.0650   
    3.46737      70.0650   
    3.54813      70.0650   
    3.63078      70.0650   
    3.71535      70.0649   
    3.80189      70.0649   
    3.89045      70.0649   
    3.98107      70.0648   
    4.07380      70.0648   
    4.16869      70.0648   
    4.26580      70.0648   
    4.36516      70.0647   
    4.46684      70.0647   
    4.57088      70.0646   
    4.67735      70.0646   
    4.78630      70.0646   
    4.89779      70.0645   
    5.01187      70.0645   
    5.12861      70.0644   
    5.24807      70.0644   
    5.37032      70.0643   
    5.49541      70.0643   
    5.62341      70.0642   
    5.75440      70.0642   
    5.88844      70.0641   
    6.02560      70.0640   
    6.16595      70.0640   
    6.30957      70.0639   
    6.45654      70.0638   
    6.60693      70.0637   
    6.76083      70.0636   
    6.91831      70.0636   
    7.07946      70.0635   
    7.24436      70.0634   
    7.41310      70.0633   
    7.58578      70.0632   
    7.76247      70.0631   
    7.94328      70.0629   
    8.12831      70.0628   
    8.31764      70.0627   
    8.51138      70.0626   
    8.70964      70.0624   
    8.91251      70.0623   
    9.12011      70.0621   
    9.33254      70.0620   
    9.54993      70.0618   
    9.77237      70.0616   
   10.00000      70.0615   
   10.23293      70.0613   
   10.47129      70.0611   
   10.71519      70.0609   
   10.96478      70.0606   
   11.22018      70.0604   
   11.48154      70.0602   
   11.74898      70.0599   
   12.02264      70.0597   
   12.30269      70.0594   
   12.58925      70.0591   
   12.88250      70.0588   
   13.18257      70.0585   
   13.48963      70.0581   
   13.80384      70.0578   
   14.12538      70.0574   
   14.45440      70.0571   
   14.79108      70.0567   
   15.13561      70.0562   
   15.48817      70.0558   
   15.84893      70.0554   
   16.21810      70.0549   
   16.59587      70.0544   
   16.98244      70.0539   
   17.37801      70.0533   
   17.78279      70.0527   
   18.19701      70.0521   
   18.62087      70.0515   
   19.05461      70.0509   
   19.49845      70.0502   
   19.95262      70.0494   
   20.41738      70.0487   
   20.89296      70.0479   
   21.37962      70.0471   
   21.87762      70.0462   
   22.38721      70.0453   
   22.90868      70.0444   
   23.44229      70.0434   
   23.98833      70.0423   
   24.54709      70.0412   
   25.11886      70.0401   
   25.70396      70.0389   
   26.30268      70.0377   
   26.91535      70.0363   
   27.54229      70.0350   
   28.18383      70.0335   
   28.84032      70.0320   
   29.51209      70.0305   
   30.19952      70.0288   
   30.90295      70.0271   
   31.62278      70.0253   
   32.35937      70.0234   
   33.11311      70.0215   
   33.88442      70.0194   
   34.67369      70.0172   
   35.48134      70.0150   
   36.30781      70.0126   
   37.15352      70.0101   
   38.01894      70.0075   
   38.90451      70.0048   
   39.81072      70.0020   
   40.73803      69.9990   
   41.68694      69.9959   
   42.65795      69.9926   
   43.65158      69.9892   
   44.66836      69.9857   
   45.70882      69.9820   
   46.77351      69.9781   
   47.86301      69.9740   
   48.97788      69.9697   
   50.11872      69.9653   
   51.28614      69.9606   
   52.48075      69.9557   
   53.70318      69.9506   
   54.95409      69.9453   
   56.23413      69.9397   
   57.54399      69.9338   
   58.88437      69.9277   
   60.25596      69.9213   
   61.65950      69.9147   
   63.09573      69.9077   
   64.56542      69.9004   
   66.06934      69.8928   
   67.60830      69.8848   
   69.18310      69.8765   
   70.79458      69.8678   
   72.44360      69.8587   
   74.13102      69.8491   
   75.85776      69.8392   
   77.62471      69.8288   
   79.43282      69.8180   
   81.28305      69.8067   
   83.17638      69.7948   
   85.11380      69.7825   
   87.09636      69.7696   
   89.12509      69.7561   
   91.20108      69.7421   
   93.32543      69.7274   
   95.49926      69.7121   
   97.72372      69.6962   
  100.00000      69.6795   
  102.32930      69.6621   
  104.71285      69.6440   
  107.15193      69.6251   
  109.64782      69.6054   
  112.20185      69.5849   
  114.81536      69.5635   
  117.48976      69.5412   
  120.22644      69.5180   
  123.02688      69.4939   
  125.89254      69.4687   
  128.82496      69.4425   
  131.82567      69.4152   
  134.89629      69.3869   
  138.03843      69.3573   
  141.25375      69.3267   
  144.54398      69.2948   
  147.91084      69.2616   
  151.35612      69.2272   
  154.88166      69.1914   
  158.48932      69.1542   
  162.18101      69.1156   
  165.95869      69.0756   
  169.82437      69.0341   
  173.78008      68.9911   
  177.82794      68.9464   
  181.97009      68.9002   
  186.20871      68.8523   
  190.54607      68.8027   
  194.98446      68.7513   
  199.52623      68.6982   
  204.17379      68.6433   
  208.92961      68.5865   
  213.79621      68.5278   
  218.77616      68.4672   
  223.87211      68.4047   
  229.08677      68.3401   
  234.42288      68.2735   
  239.88329      68.2048   
  245.47089      68.1341   
  251.18864      68.0612   
  257.03958      67.9862   
  263.02680      67.9090   
  269.15348      67.8297   
  275.42287      67.7481   
  281.83829      67.6642   
  288.40315      67.5782   
  295.12092      67.4898   
  301.99517      67.3992   
  309.02954      67.3063   
  316.22777      67.2111   
  323.59366      67.1136   
  331.13112      67.0138   
  338.84416      66.9117   
  346.73685      66.8073   
  354.81339      66.7006   
  363.07805      66.5916   
  371.53523      66.4804   
  380.18940      66.3668   
  389.04514      66.2511   
  398.10717      66.1330   
  407.38028      66.0128   
  416.86938      65.8904   
  426.57952      65.7657   
  436.51583      65.6390   
  446.68359      65.5101   
  457.08819      65.3791   
  467.73514      65.2460   
  478.63009      65.1110   
  489.77882      64.9739   
  501.18723      64.8348   
  512.86138      64.6938   
  524.80746      64.5509   
  537.03180      64.4062   
  549.54087      64.2596   
  562.34133      64.1112   
  575.43994      63.9611   
  588.84366      63.8093   
  602.55959      63.6558   
  616.59500      63.5007   
  630.95734      63.3440   
  645.65423      63.1858   
  660.69345      63.0261   
  676.08298      62.8649   
  691.83097      62.7022   
  707.94578      62.5382   
  724.43596      62.3729   
  741.31024      62.2063   
  758.57758      62.0384   
  776.24712      61.8692   
  794.32823      61.6989   
  812.83052      61.5275   
  831.76377      61.3549   
  851.13804      61.1812   
  870.96359      61.0066   
  891.25094      60.8309   
  912.01084      60.6542   
  933.25430      60.4766   
  954.99259      60.2981   
  977.23722      60.1188   
    1.00000k     59.9386   
    1.02329k     59.7575   
    1.04713k     59.5757   
    1.07152k     59.3932   
    1.09648k     59.2099   
    1.12202k     59.0259   
    1.14815k     58.8413   
    1.17490k     58.6560   
    1.20226k     58.4701   
    1.23027k     58.2836   
    1.25893k     58.0965   
    1.28825k     57.9089   
    1.31826k     57.7207   
    1.34896k     57.5320   
    1.38038k     57.3429   
    1.41254k     57.1533   
    1.44544k     56.9632   
    1.47911k     56.7727   
    1.51356k     56.5817   
    1.54882k     56.3904   
    1.58489k     56.1987   
    1.62181k     56.0066   
    1.65959k     55.8142   
    1.69824k     55.6214   
    1.73780k     55.4283   
    1.77828k     55.2349   
    1.81970k     55.0411   
    1.86209k     54.8471   
    1.90546k     54.6529   
    1.94984k     54.4583   
    1.99526k     54.2635   
    2.04174k     54.0685   
    2.08930k     53.8732   
    2.13796k     53.6777   
    2.18776k     53.4820   
    2.23872k     53.2860   
    2.29087k     53.0899   
    2.34423k     52.8936   
    2.39883k     52.6971   
    2.45471k     52.5004   
    2.51189k     52.3035   
    2.57040k     52.1065   
    2.63027k     51.9093   
    2.69153k     51.7120   
    2.75423k     51.5145   
    2.81838k     51.3169   
    2.88403k     51.1191   
    2.95121k     50.9212   
    3.01995k     50.7232   
    3.09030k     50.5251   
    3.16228k     50.3268   
    3.23594k     50.1284   
    3.31131k     49.9299   
    3.38844k     49.7313   
    3.46737k     49.5325   
    3.54813k     49.3337   
    3.63078k     49.1348   
    3.71535k     48.9357   
    3.80189k     48.7366   
    3.89045k     48.5373   
    3.98107k     48.3380   
    4.07380k     48.1386   
    4.16869k     47.9391   
    4.26580k     47.7394   
    4.36516k     47.5397   
    4.46684k     47.3399   
    4.57088k     47.1401   
    4.67735k     46.9401   
    4.78630k     46.7400   
    4.89779k     46.5399   
    5.01187k     46.3396   
    5.12861k     46.1393   
    5.24807k     45.9388   
    5.37032k     45.7383   
    5.49541k     45.5377   
    5.62341k     45.3370   
    5.75440k     45.1362   
    5.88844k     44.9353   
    6.02560k     44.7343   
    6.16595k     44.5332   
    6.30957k     44.3320   
    6.45654k     44.1307   
    6.60693k     43.9293   
    6.76083k     43.7277   
    6.91831k     43.5261   
    7.07946k     43.3244   
    7.24436k     43.1225   
    7.41310k     42.9205   
    7.58578k     42.7184   
    7.76247k     42.5161   
    7.94328k     42.3138   
    8.12831k     42.1113   
    8.31764k     41.9086   
    8.51138k     41.7058   
    8.70964k     41.5029   
    8.91251k     41.2998   
    9.12011k     41.0965   
    9.33254k     40.8931   
    9.54993k     40.6895   
    9.77237k     40.4857   
   10.00000k     40.2818   
   10.23293k     40.0776   
   10.47129k     39.8733   
   10.71519k     39.6688   
   10.96478k     39.4640   
   11.22018k     39.2591   
   11.48154k     39.0539   
   11.74898k     38.8485   
   12.02264k     38.6428   
   12.30269k     38.4369   
   12.58925k     38.2308   
   12.88250k     38.0244   
   13.18257k     37.8177   
   13.48963k     37.6107   
   13.80384k     37.4035   
   14.12538k     37.1960   
   14.45440k     36.9881   
   14.79108k     36.7800   
   15.13561k     36.5715   
   15.48817k     36.3627   
   15.84893k     36.1536   
   16.21810k     35.9441   
   16.59587k     35.7343   
   16.98244k     35.5241   
   17.37801k     35.3135   
   17.78279k     35.1025   
   18.19701k     34.8912   
   18.62087k     34.6794   
   19.05461k     34.4673   
   19.49845k     34.2547   
   19.95262k     34.0417   
   20.41738k     33.8283   
   20.89296k     33.6145   
   21.37962k     33.4002   
   21.87762k     33.1855   
   22.38721k     32.9703   
   22.90868k     32.7546   
   23.44229k     32.5385   
   23.98833k     32.3220   
   24.54709k     32.1050   
   25.11886k     31.8875   
   25.70396k     31.6695   
   26.30268k     31.4510   
   26.91535k     31.2321   
   27.54229k     31.0128   
   28.18383k     30.7929   
   28.84032k     30.5726   
   29.51209k     30.3518   
   30.19952k     30.1306   
   30.90295k     29.9089   
   31.62278k     29.6868   
   32.35937k     29.4642   
   33.11311k     29.2412   
   33.88442k     29.0178   
   34.67369k     28.7940   
   35.48134k     28.5698   
   36.30781k     28.3452   
   37.15352k     28.1202   
   38.01894k     27.8948   
   38.90451k     27.6691   
   39.81072k     27.4431   
   40.73803k     27.2167   
   41.68694k     26.9901   
   42.65795k     26.7631   
   43.65158k     26.5359   
   44.66836k     26.3084   
   45.70882k     26.0807   
   46.77351k     25.8528   
   47.86301k     25.6247   
   48.97788k     25.3964   
   50.11872k     25.1680   
   51.28614k     24.9394   
   52.48075k     24.7107   
   53.70318k     24.4819   
   54.95409k     24.2530   
   56.23413k     24.0241   
   57.54399k     23.7952   
   58.88437k     23.5662   
   60.25596k     23.3372   
   61.65950k     23.1082   
   63.09573k     22.8793   
   64.56542k     22.6505   
   66.06934k     22.4217   
   67.60830k     22.1930   
   69.18310k     21.9645   
   70.79458k     21.7361   
   72.44360k     21.5079   
   74.13102k     21.2798   
   75.85776k     21.0519   
   77.62471k     20.8243   
   79.43282k     20.5968   
   81.28305k     20.3696   
   83.17638k     20.1427   
   85.11380k     19.9161   
   87.09636k     19.6897   
   89.12509k     19.4637   
   91.20108k     19.2379   
   93.32543k     19.0126   
   95.49926k     18.7875   
   97.72372k     18.5628   
  100.00000k     18.3385   
  102.32930k     18.1146   
  104.71285k     17.8910   
  107.15193k     17.6678   
  109.64782k     17.4451   
  112.20185k     17.2228   
  114.81536k     17.0008   
  117.48976k     16.7793   
  120.22644k     16.5583   
  123.02688k     16.3376   
  125.89254k     16.1174   
  128.82496k     15.8977   
  131.82567k     15.6783   
  134.89629k     15.4594   
  138.03843k     15.2410   
  141.25375k     15.0230   
  144.54398k     14.8054   
  147.91084k     14.5882   
  151.35612k     14.3715   
  154.88166k     14.1552   
  158.48932k     13.9394   
  162.18101k     13.7239   
  165.95869k     13.5089   
  169.82437k     13.2942   
  173.78008k     13.0800   
  177.82794k     12.8661   
  181.97009k     12.6526   
  186.20871k     12.4395   
  190.54607k     12.2268   
  194.98446k     12.0144   
  199.52623k     11.8023   
  204.17379k     11.5906   
  208.92961k     11.3792   
  213.79621k     11.1681   
  218.77616k     10.9574   
  223.87211k     10.7469   
  229.08677k     10.5367   
  234.42288k     10.3268   
  239.88329k     10.1171   
  245.47089k      9.9077   
  251.18864k      9.6985   
  257.03958k      9.4895   
  263.02680k      9.2808   
  269.15348k      9.0723   
  275.42287k      8.8639   
  281.83829k      8.6557   
  288.40315k      8.4477   
  295.12092k      8.2399   
  301.99517k      8.0322   
  309.02954k      7.8246   
  316.22777k      7.6172   
  323.59366k      7.4098   
  331.13112k      7.2026   
  338.84416k      6.9954   
  346.73685k      6.7883   
  354.81339k      6.5813   
  363.07805k      6.3743   
  371.53523k      6.1673   
  380.18940k      5.9604   
  389.04514k      5.7535   
  398.10717k      5.5465   
  407.38028k      5.3396   
  416.86938k      5.1326   
  426.57952k      4.9256   
  436.51583k      4.7185   
  446.68359k      4.5113   
  457.08819k      4.3041   
  467.73514k      4.0968   
  478.63009k      3.8893   
  489.77882k      3.6818   
  501.18723k      3.4740   
  512.86138k      3.2662   
  524.80746k      3.0581   
  537.03180k      2.8499   
  549.54087k      2.6415   
  562.34133k      2.4328   
  575.43994k      2.2239   
  588.84366k      2.0148   
  602.55959k      1.8053   
  616.59500k      1.5956   
  630.95734k      1.3856   
  645.65423k      1.1752   
  660.69345k    964.5347m  
  676.08298k    753.4535m  
  691.83097k    541.9772m  
  707.94578k    330.0850m  
  724.43596k    117.7530m  
  741.31024k    -95.0424m  
  758.57758k   -308.3260m  
  776.24712k   -522.1231m  
  794.32823k   -736.4597m  
  812.83052k   -951.3640m  
  831.76377k     -1.1669   
  851.13804k     -1.3830   
  870.96359k     -1.5998   
  891.25094k     -1.8172   
  912.01084k     -2.0354   
  933.25430k     -2.2543   
  954.99259k     -2.4741   
  977.23722k     -2.6946   
    1.00000x     -2.9160   
    1.02329x     -3.1383   
    1.04713x     -3.3615   
    1.07152x     -3.5858   
    1.09648x     -3.8110   
    1.12202x     -4.0373   
    1.14815x     -4.2647   
    1.17490x     -4.4932   
    1.20226x     -4.7230   
    1.23027x     -4.9540   
    1.25893x     -5.1863   
    1.28825x     -5.4200   
    1.31826x     -5.6550   
    1.34896x     -5.8916   
    1.38038x     -6.1296   
    1.41254x     -6.3692   
    1.44544x     -6.6105   
    1.47911x     -6.8534   
    1.51356x     -7.0982   
    1.54882x     -7.3447   
    1.58489x     -7.5931   
    1.62181x     -7.8435   
    1.65959x     -8.0959   
    1.69824x     -8.3504   
    1.73780x     -8.6071   
    1.77828x     -8.8660   
    1.81970x     -9.1272   
    1.86209x     -9.3908   
    1.90546x     -9.6569   
    1.94984x     -9.9255   
    1.99526x    -10.1967   
    2.04174x    -10.4706   
    2.08930x    -10.7472   
    2.13796x    -11.0268   
    2.18776x    -11.3092   
    2.23872x    -11.5947   
    2.29087x    -11.8832   
    2.34423x    -12.1749   
    2.39883x    -12.4698   
    2.45471x    -12.7681   
    2.51189x    -13.0698   
    2.57040x    -13.3749   
    2.63027x    -13.6836   
    2.69153x    -13.9959   
    2.75423x    -14.3120   
    2.81838x    -14.6318   
    2.88403x    -14.9554   
    2.95121x    -15.2830   
    3.01995x    -15.6146   
    3.09030x    -15.9502   
    3.16228x    -16.2899   
    3.23594x    -16.6338   
    3.31131x    -16.9820   
    3.38844x    -17.3344   
    3.46737x    -17.6912   
    3.54813x    -18.0524   
    3.63078x    -18.4180   
    3.71535x    -18.7881   
    3.80189x    -19.1627   
    3.89045x    -19.5418   
    3.98107x    -19.9256   
    4.07380x    -20.3140   
    4.16869x    -20.7070   
    4.26580x    -21.1047   
    4.36516x    -21.5070   
    4.46684x    -21.9141   
    4.57088x    -22.3259   
    4.67735x    -22.7424   
    4.78630x    -23.1636   
    4.89779x    -23.5895   
    5.01187x    -24.0201   
    5.12861x    -24.4555   
    5.24807x    -24.8955   
    5.37032x    -25.3403   
    5.49541x    -25.7897   
    5.62341x    -26.2437   
    5.75440x    -26.7024   
    5.88844x    -27.1657   
    6.02560x    -27.6335   
    6.16595x    -28.1059   
    6.30957x    -28.5828   
    6.45654x    -29.0642   
    6.60693x    -29.5501   
    6.76083x    -30.0403   
    6.91831x    -30.5350   
    7.07946x    -31.0340   
    7.24436x    -31.5372   
    7.41310x    -32.0448   
    7.58578x    -32.5566   
    7.76247x    -33.0725   
    7.94328x    -33.5927   
    8.12831x    -34.1169   
    8.31764x    -34.6452   
    8.51138x    -35.1776   
    8.70964x    -35.7140   
    8.91251x    -36.2544   
    9.12011x    -36.7987   
    9.33254x    -37.3470   
    9.54993x    -37.8992   
    9.77237x    -38.4553   
   10.00000x    -39.0153   
   10.23293x    -39.5791   
   10.47129x    -40.1468   
   10.71519x    -40.7183   
   10.96478x    -41.2936   
   11.22018x    -41.8728   
   11.48154x    -42.4558   
   11.74898x    -43.0427   
   12.02264x    -43.6334   
   12.30269x    -44.2280   
   12.58925x    -44.8265   
   12.88250x    -45.4290   
   13.18257x    -46.0353   
   13.48963x    -46.6457   
   13.80384x    -47.2601   
   14.12538x    -47.8785   
   14.45440x    -48.5010   
   14.79108x    -49.1276   
   15.13561x    -49.7585   
   15.48817x    -50.3935   
   15.84893x    -51.0329   
   16.21810x    -51.6765   
   16.59587x    -52.3245   
   16.98244x    -52.9768   
   17.37801x    -53.6335   
   17.78279x    -54.2946   
   18.19701x    -54.9600   
   18.62087x    -55.6297   
   19.05461x    -56.3037   
   19.49845x    -56.9817   
   19.95262x    -57.6637   
   20.41738x    -58.3493   
   20.89296x    -59.0383   
   21.37962x    -59.7302   
   21.87762x    -60.4246   
   22.38721x    -61.1206   
   22.90868x    -61.8175   
   23.44229x    -62.5143   
   23.98833x    -63.2095   
   24.54709x    -63.9018   
   25.11886x    -64.5893   
   25.70396x    -65.2698   
   26.30268x    -65.9408   
   26.91535x    -66.5994   
   27.54229x    -67.2426   
   28.18383x    -67.8669   
   28.84032x    -68.4686   
   29.51209x    -69.0441   
   30.19952x    -69.5898   
   30.90295x    -70.1024   
   31.62278x    -70.5792   
   32.35937x    -71.0181   
   33.11311x    -71.4179   
   33.88442x    -71.7785   
   34.67369x    -72.1006   
   35.48134x    -72.3860   
   36.30781x    -72.6371   
   37.15352x    -72.8570   
   38.01894x    -73.0491   
   38.90451x    -73.2172   
   39.81072x    -73.3648   
   40.73803x    -73.4954   
   41.68694x    -73.6123   
   42.65795x    -73.7184   
   43.65158x    -73.8163   
   44.66836x    -73.9081   
   45.70882x    -73.9960   
   46.77351x    -74.0814   
   47.86301x    -74.1656   
   48.97788x    -74.2499   
   50.11872x    -74.3351   
   51.28614x    -74.4218   
   52.48075x    -74.5106   
   53.70318x    -74.6020   
   54.95409x    -74.6963   
   56.23413x    -74.7936   
   57.54399x    -74.8942   
   58.88437x    -74.9981   
   60.25596x    -75.1054   
   61.65950x    -75.2162   
   63.09573x    -75.3303   
   64.56542x    -75.4478   
   66.06934x    -75.5686   
   67.60830x    -75.6926   
   69.18310x    -75.8198   
   70.79458x    -75.9500   
   72.44360x    -76.0833   
   74.13102x    -76.2193   
   75.85776x    -76.3582   
   77.62471x    -76.4997   
   79.43282x    -76.6438   
   81.28305x    -76.7903   
   83.17638x    -76.9393   
   85.11380x    -77.0905   
   87.09636x    -77.2438   
   89.12509x    -77.3993   
   91.20108x    -77.5568   
   93.32543x    -77.7161   
   95.49926x    -77.8773   
   97.72372x    -78.0403   
  100.00000x    -78.2049   
  102.32930x    -78.3712   
  104.71285x    -78.5389   
  107.15193x    -78.7081   
  109.64782x    -78.8787   
  112.20185x    -79.0507   
  114.81536x    -79.2239   
  117.48976x    -79.3983   
  120.22644x    -79.5739   
  123.02688x    -79.7506   
  125.89254x    -79.9284   
  128.82496x    -80.1071   
  131.82567x    -80.2869   
  134.89629x    -80.4675   
  138.03843x    -80.6490   
  141.25375x    -80.8314   
  144.54398x    -81.0146   
  147.91084x    -81.1985   
  151.35612x    -81.3832   
  154.88166x    -81.5685   
  158.48932x    -81.7545   
  162.18101x    -81.9412   
  165.95869x    -82.1284   
  169.82437x    -82.3163   
  173.78008x    -82.5047   
  177.82794x    -82.6936   
  181.97009x    -82.8830   
  186.20871x    -83.0729   
  190.54607x    -83.2632   
  194.98446x    -83.4540   
  199.52623x    -83.6452   
  204.17379x    -83.8368   
  208.92961x    -84.0288   
  213.79621x    -84.2211   
  218.77616x    -84.4138   
  223.87211x    -84.6068   
  229.08677x    -84.8002   
  234.42288x    -84.9938   
  239.88329x    -85.1877   
  245.47089x    -85.3819   
  251.18864x    -85.5764   
  257.03958x    -85.7711   
  263.02680x    -85.9660   
  269.15348x    -86.1612   
  275.42287x    -86.3566   
  281.83829x    -86.5522   
  288.40315x    -86.7480   
  295.12092x    -86.9440   
  301.99517x    -87.1402   
  309.02954x    -87.3365   
  316.22777x    -87.5330   
  323.59366x    -87.7297   
  331.13112x    -87.9265   
  338.84416x    -88.1235   
  346.73685x    -88.3206   
  354.81339x    -88.5178   
  363.07805x    -88.7152   
  371.53523x    -88.9126   
  380.18940x    -89.1102   
  389.04514x    -89.3079   
  398.10717x    -89.5057   
  407.38028x    -89.7036   
  416.86938x    -89.9016   
  426.57952x    -90.0997   
  436.51583x    -90.2979   
  446.68359x    -90.4961   
  457.08819x    -90.6944   
  467.73514x    -90.8929   
  478.63009x    -91.0913   
  489.77882x    -91.2899   
  501.18723x    -91.4885   
  512.86138x    -91.6872   
  524.80746x    -91.8859   
  537.03180x    -92.0847   
  549.54087x    -92.2835   
  562.34133x    -92.4824   
  575.43994x    -92.6814   
  588.84366x    -92.8804   
  602.55959x    -93.0794   
  616.59500x    -93.2785   
  630.95734x    -93.4776   
  645.65423x    -93.6768   
  660.69345x    -93.8760   
  676.08298x    -94.0752   
  691.83097x    -94.2745   
  707.94578x    -94.4738   
  724.43596x    -94.6731   
  741.31024x    -94.8725   
  758.57758x    -95.0719   
  776.24712x    -95.2713   
  794.32823x    -95.4708   
  812.83052x    -95.6702   
  831.76377x    -95.8697   
  851.13804x    -96.0693   
  870.96359x    -96.2688   
  891.25094x    -96.4684   
  912.01084x    -96.6679   
  933.25430x    -96.8675   
  954.99259x    -97.0672   
  977.23722x    -97.2668   
    1.00000g    -97.4665   
y
-----------------------------------------------
x

        freq    volt phase 
                   vo_ac   
    1.00000    -175.0349m  
    1.02329    -179.1119m  
    1.04713    -183.2839m  
    1.07152    -187.5532m  
    1.09648    -191.9218m  
    1.12202    -196.3922m  
    1.14815    -200.9667m  
    1.17490    -205.6478m  
    1.20226    -210.4379m  
    1.23027    -215.3396m  
    1.25893    -220.3555m  
    1.28825    -225.4881m  
    1.31826    -230.7404m  
    1.34896    -236.1149m  
    1.38038    -241.6147m  
    1.41254    -247.2426m  
    1.44544    -253.0015m  
    1.47911    -258.8946m  
    1.51356    -264.9249m  
    1.54882    -271.0957m  
    1.58489    -277.4103m  
    1.62181    -283.8719m  
    1.65959    -290.4840m  
    1.69824    -297.2501m  
    1.73780    -304.1738m  
    1.77828    -311.2588m  
    1.81970    -318.5088m  
    1.86209    -325.9277m  
    1.90546    -333.5194m  
    1.94984    -341.2878m  
    1.99526    -349.2372m  
    2.04174    -357.3718m  
    2.08930    -365.6959m  
    2.13796    -374.2138m  
    2.18776    -382.9301m  
    2.23872    -391.8494m  
    2.29087    -400.9764m  
    2.34423    -410.3161m  
    2.39883    -419.8732m  
    2.45471    -429.6530m  
    2.51189    -439.6605m  
    2.57040    -449.9011m  
    2.63027    -460.3802m  
    2.69153    -471.1033m  
    2.75423    -482.0762m  
    2.81838    -493.3047m  
    2.88403    -504.7946m  
    2.95121    -516.5522m  
    3.01995    -528.5836m  
    3.09030    -540.8952m  
    3.16228    -553.4935m  
    3.23594    -566.3851m  
    3.31131    -579.5771m  
    3.38844    -593.0762m  
    3.46737    -606.8897m  
    3.54813    -621.0248m  
    3.63078    -635.4892m  
    3.71535    -650.2905m  
    3.80189    -665.4363m  
    3.89045    -680.9349m  
    3.98107    -696.7943m  
    4.07380    -713.0232m  
    4.16869    -729.6298m  
    4.26580    -746.6232m  
    4.36516    -764.0123m  
    4.46684    -781.8062m  
    4.57088    -800.0145m  
    4.67735    -818.6468m  
    4.78630    -837.7128m  
    4.89779    -857.2227m  
    5.01187    -877.1870m  
    5.12861    -897.6160m  
    5.24807    -918.5207m  
    5.37032    -939.9120m  
    5.49541    -961.8013m  
    5.62341    -984.2002m  
    5.75440      -1.0071   
    5.88844      -1.0306   
    6.02560      -1.0546   
    6.16595      -1.0791   
    6.30957      -1.1043   
    6.45654      -1.1300   
    6.60693      -1.1563   
    6.76083      -1.1832   
    6.91831      -1.2108   
    7.07946      -1.2390   
    7.24436      -1.2678   
    7.41310      -1.2973   
    7.58578      -1.3275   
    7.76247      -1.3585   
    7.94328      -1.3901   
    8.12831      -1.4225   
    8.31764      -1.4556   
    8.51138      -1.4895   
    8.70964      -1.5241   
    8.91251      -1.5596   
    9.12011      -1.5959   
    9.33254      -1.6331   
    9.54993      -1.6711   
    9.77237      -1.7100   
   10.00000      -1.7498   
   10.23293      -1.7905   
   10.47129      -1.8322   
   10.71519      -1.8749   
   10.96478      -1.9185   
   11.22018      -1.9632   
   11.48154      -2.0089   
   11.74898      -2.0556   
   12.02264      -2.1034   
   12.30269      -2.1524   
   12.58925      -2.2025   
   12.88250      -2.2537   
   13.18257      -2.3062   
   13.48963      -2.3598   
   13.80384      -2.4147   
   14.12538      -2.4709   
   14.45440      -2.5284   
   14.79108      -2.5872   
   15.13561      -2.6474   
   15.48817      -2.7090   
   15.84893      -2.7720   
   16.21810      -2.8364   
   16.59587      -2.9024   
   16.98244      -2.9699   
   17.37801      -3.0389   
   17.78279      -3.1096   
   18.19701      -3.1819   
   18.62087      -3.2558   
   19.05461      -3.3315   
   19.49845      -3.4089   
   19.95262      -3.4881   
   20.41738      -3.5692   
   20.89296      -3.6521   
   21.37962      -3.7369   
   21.87762      -3.8237   
   22.38721      -3.9125   
   22.90868      -4.0033   
   23.44229      -4.0963   
   23.98833      -4.1914   
   24.54709      -4.2886   
   25.11886      -4.3881   
   25.70396      -4.4899   
   26.30268      -4.5941   
   26.91535      -4.7006   
   27.54229      -4.8096   
   28.18383      -4.9211   
   28.84032      -5.0352   
   29.51209      -5.1518   
   30.19952      -5.2712   
   30.90295      -5.3932   
   31.62278      -5.5181   
   32.35937      -5.6458   
   33.11311      -5.7764   
   33.88442      -5.9101   
   34.67369      -6.0467   
   35.48134      -6.1865   
   36.30781      -6.3294   
   37.15352      -6.4756   
   38.01894      -6.6252   
   38.90451      -6.7781   
   39.81072      -6.9344   
   40.73803      -7.0943   
   41.68694      -7.2579   
   42.65795      -7.4251   
   43.65158      -7.5960   
   44.66836      -7.7708   
   45.70882      -7.9496   
   46.77351      -8.1323   
   47.86301      -8.3191   
   48.97788      -8.5101   
   50.11872      -8.7054   
   51.28614      -8.9049   
   52.48075      -9.1089   
   53.70318      -9.3175   
   54.95409      -9.5306   
   56.23413      -9.7484   
   57.54399      -9.9710   
   58.88437     -10.1984   
   60.25596     -10.4309   
   61.65950     -10.6684   
   63.09573     -10.9110   
   64.56542     -11.1589   
   66.06934     -11.4121   
   67.60830     -11.6708   
   69.18310     -11.9349   
   70.79458     -12.2047   
   72.44360     -12.4803   
   74.13102     -12.7616   
   75.85776     -13.0489   
   77.62471     -13.3421   
   79.43282     -13.6415   
   81.28305     -13.9471   
   83.17638     -14.2589   
   85.11380     -14.5771   
   87.09636     -14.9018   
   89.12509     -15.2331   
   91.20108     -15.5710   
   93.32543     -15.9156   
   95.49926     -16.2670   
   97.72372     -16.6254   
  100.00000     -16.9907   
  102.32930     -17.3631   
  104.71285     -17.7426   
  107.15193     -18.1292   
  109.64782     -18.5232   
  112.20185     -18.9245   
  114.81536     -19.3331   
  117.48976     -19.7491   
  120.22644     -20.1727   
  123.02688     -20.6037   
  125.89254     -21.0423   
  128.82496     -21.4885   
  131.82567     -21.9423   
  134.89629     -22.4037   
  138.03843     -22.8727   
  141.25375     -23.3493   
  144.54398     -23.8335   
  147.91084     -24.3253   
  151.35612     -24.8247   
  154.88166     -25.3316   
  158.48932     -25.8460   
  162.18101     -26.3678   
  165.95869     -26.8970   
  169.82437     -27.4335   
  173.78008     -27.9771   
  177.82794     -28.5278   
  181.97009     -29.0855   
  186.20871     -29.6501   
  190.54607     -30.2214   
  194.98446     -30.7993   
  199.52623     -31.3835   
  204.17379     -31.9741   
  208.92961     -32.5706   
  213.79621     -33.1730   
  218.77616     -33.7811   
  223.87211     -34.3946   
  229.08677     -35.0133   
  234.42288     -35.6370   
  239.88329     -36.2653   
  245.47089     -36.8981   
  251.18864     -37.5350   
  257.03958     -38.1759   
  263.02680     -38.8202   
  269.15348     -39.4679   
  275.42287     -40.1185   
  281.83829     -40.7718   
  288.40315     -41.4273   
  295.12092     -42.0849   
  301.99517     -42.7441   
  309.02954     -43.4046   
  316.22777     -44.0660   
  323.59366     -44.7281   
  331.13112     -45.3905   
  338.84416     -46.0527   
  346.73685     -46.7146   
  354.81339     -47.3757   
  363.07805     -48.0356   
  371.53523     -48.6941   
  380.18940     -49.3508   
  389.04514     -50.0053   
  398.10717     -50.6575   
  407.38028     -51.3068   
  416.86938     -51.9530   
  426.57952     -52.5959   
  436.51583     -53.2351   
  446.68359     -53.8703   
  457.08819     -54.5012   
  467.73514     -55.1276   
  478.63009     -55.7493   
  489.77882     -56.3659   
  501.18723     -56.9773   
  512.86138     -57.5832   
  524.80746     -58.1834   
  537.03180     -58.7777   
  549.54087     -59.3660   
  562.34133     -59.9480   
  575.43994     -60.5237   
  588.84366     -61.0928   
  602.55959     -61.6552   
  616.59500     -62.2107   
  630.95734     -62.7594   
  645.65423     -63.3011   
  660.69345     -63.8356   
  676.08298     -64.3630   
  691.83097     -64.8831   
  707.94578     -65.3959   
  724.43596     -65.9013   
  741.31024     -66.3994   
  758.57758     -66.8900   
  776.24712     -67.3732   
  794.32823     -67.8489   
  812.83052     -68.3172   
  831.76377     -68.7781   
  851.13804     -69.2316   
  870.96359     -69.6776   
  891.25094     -70.1164   
  912.01084     -70.5477   
  933.25430     -70.9718   
  954.99259     -71.3887   
  977.23722     -71.7984   
    1.00000k    -72.2009   
    1.02329k    -72.5964   
    1.04713k    -72.9849   
    1.07152k    -73.3665   
    1.09648k    -73.7413   
    1.12202k    -74.1093   
    1.14815k    -74.4706   
    1.17490k    -74.8253   
    1.20226k    -75.1735   
    1.23027k    -75.5153   
    1.25893k    -75.8508   
    1.28825k    -76.1800   
    1.31826k    -76.5032   
    1.34896k    -76.8202   
    1.38038k    -77.1314   
    1.41254k    -77.4367   
    1.44544k    -77.7362   
    1.47911k    -78.0301   
    1.51356k    -78.3185   
    1.54882k    -78.6015   
    1.58489k    -78.8791   
    1.62181k    -79.1514   
    1.65959k    -79.4187   
    1.69824k    -79.6809   
    1.73780k    -79.9382   
    1.77828k    -80.1907   
    1.81970k    -80.4384   
    1.86209k    -80.6815   
    1.90546k    -80.9201   
    1.94984k    -81.1543   
    1.99526k    -81.3841   
    2.04174k    -81.6097   
    2.08930k    -81.8312   
    2.13796k    -82.0486   
    2.18776k    -82.2621   
    2.23872k    -82.4717   
    2.29087k    -82.6776   
    2.34423k    -82.8799   
    2.39883k    -83.0785   
    2.45471k    -83.2737   
    2.51189k    -83.4655   
    2.57040k    -83.6540   
    2.63027k    -83.8393   
    2.69153k    -84.0215   
    2.75423k    -84.2006   
    2.81838k    -84.3768   
    2.88403k    -84.5501   
    2.95121k    -84.7206   
    3.01995k    -84.8884   
    3.09030k    -85.0536   
    3.16228k    -85.2162   
    3.23594k    -85.3764   
    3.31131k    -85.5341   
    3.38844k    -85.6896   
    3.46737k    -85.8428   
    3.54813k    -85.9939   
    3.63078k    -86.1429   
    3.71535k    -86.2899   
    3.80189k    -86.4349   
    3.89045k    -86.5780   
    3.98107k    -86.7194   
    4.07380k    -86.8590   
    4.16869k    -86.9970   
    4.26580k    -87.1333   
    4.36516k    -87.2682   
    4.46684k    -87.4015   
    4.57088k    -87.5335   
    4.67735k    -87.6641   
    4.78630k    -87.7935   
    4.89779k    -87.9216   
    5.01187k    -88.0487   
    5.12861k    -88.1746   
    5.24807k    -88.2995   
    5.37032k    -88.4234   
    5.49541k    -88.5464   
    5.62341k    -88.6686   
    5.75440k    -88.7900   
    5.88844k    -88.9106   
    6.02560k    -89.0306   
    6.16595k    -89.1499   
    6.30957k    -89.2687   
    6.45654k    -89.3869   
    6.60693k    -89.5047   
    6.76083k    -89.6220   
    6.91831k    -89.7390   
    7.07946k    -89.8557   
    7.24436k    -89.9721   
    7.41310k    -90.0883   
    7.58578k    -90.2043   
    7.76247k    -90.3201   
    7.94328k    -90.4359   
    8.12831k    -90.5517   
    8.31764k    -90.6674   
    8.51138k    -90.7832   
    8.70964k    -90.8991   
    8.91251k    -91.0151   
    9.12011k    -91.1313   
    9.33254k    -91.2476   
    9.54993k    -91.3642   
    9.77237k    -91.4810   
   10.00000k    -91.5982   
   10.23293k    -91.7157   
   10.47129k    -91.8335   
   10.71519k    -91.9517   
   10.96478k    -92.0703   
   11.22018k    -92.1894   
   11.48154k    -92.3088   
   11.74898k    -92.4288   
   12.02264k    -92.5492   
   12.30269k    -92.6702   
   12.58925k    -92.7916   
   12.88250k    -92.9136   
   13.18257k    -93.0361   
   13.48963k    -93.1591   
   13.80384k    -93.2827   
   14.12538k    -93.4068   
   14.45440k    -93.5314   
   14.79108k    -93.6565   
   15.13561k    -93.7821   
   15.48817k    -93.9082   
   15.84893k    -94.0348   
   16.21810k    -94.1618   
   16.59587k    -94.2893   
   16.98244k    -94.4171   
   17.37801k    -94.5453   
   17.78279k    -94.6739   
   18.19701k    -94.8027   
   18.62087k    -94.9317   
   19.05461k    -95.0610   
   19.49845k    -95.1904   
   19.95262k    -95.3198   
   20.41738k    -95.4493   
   20.89296k    -95.5788   
   21.37962k    -95.7081   
   21.87762k    -95.8373   
   22.38721k    -95.9662   
   22.90868k    -96.0947   
   23.44229k    -96.2229   
   23.98833k    -96.3505   
   24.54709k    -96.4776   
   25.11886k    -96.6040   
   25.70396k    -96.7296   
   26.30268k    -96.8544   
   26.91535k    -96.9782   
   27.54229k    -97.1009   
   28.18383k    -97.2225   
   28.84032k    -97.3429   
   29.51209k    -97.4618   
   30.19952k    -97.5794   
   30.90295k    -97.6953   
   31.62278k    -97.8096   
   32.35937k    -97.9222   
   33.11311k    -98.0329   
   33.88442k    -98.1416   
   34.67369k    -98.2483   
   35.48134k    -98.3528   
   36.30781k    -98.4552   
   37.15352k    -98.5552   
   38.01894k    -98.6528   
   38.90451k    -98.7480   
   39.81072k    -98.8406   
   40.73803k    -98.9306   
   41.68694k    -99.0179   
   42.65795k    -99.1025   
   43.65158k    -99.1842   
   44.66836k    -99.2632   
   45.70882k    -99.3392   
   46.77351k    -99.4123   
   47.86301k    -99.4825   
   48.97788k    -99.5496   
   50.11872k    -99.6138   
   51.28614k    -99.6749   
   52.48075k    -99.7330   
   53.70318k    -99.7880   
   54.95409k    -99.8400   
   56.23413k    -99.8889   
   57.54399k    -99.9349   
   58.88437k    -99.9778   
   60.25596k   -100.0177   
   61.65950k   -100.0547   
   63.09573k   -100.0888   
   64.56542k   -100.1200   
   66.06934k   -100.1484   
   67.60830k   -100.1740   
   69.18310k   -100.1969   
   70.79458k   -100.2172   
   72.44360k   -100.2348   
   74.13102k   -100.2500   
   75.85776k   -100.2627   
   77.62471k   -100.2731   
   79.43282k   -100.2812   
   81.28305k   -100.2871   
   83.17638k   -100.2909   
   85.11380k   -100.2928   
   87.09636k   -100.2929   
   89.12509k   -100.2911   
   91.20108k   -100.2878   
   93.32543k   -100.2829   
   95.49926k   -100.2766   
   97.72372k   -100.2691   
  100.00000k   -100.2604   
  102.32930k   -100.2508   
  104.71285k   -100.2402   
  107.15193k   -100.2290   
  109.64782k   -100.2171   
  112.20185k   -100.2049   
  114.81536k   -100.1923   
  117.48976k   -100.1796   
  120.22644k   -100.1668   
  123.02688k   -100.1543   
  125.89254k   -100.1420   
  128.82496k   -100.1302   
  131.82567k   -100.1189   
  134.89629k   -100.1085   
  138.03843k   -100.0989   
  141.25375k   -100.0904   
  144.54398k   -100.0831   
  147.91084k   -100.0771   
  151.35612k   -100.0726   
  154.88166k   -100.0698   
  158.48932k   -100.0687   
  162.18101k   -100.0696   
  165.95869k   -100.0725   
  169.82437k   -100.0777   
  173.78008k   -100.0852   
  177.82794k   -100.0951   
  181.97009k   -100.1077   
  186.20871k   -100.1230   
  190.54607k   -100.1412   
  194.98446k   -100.1623   
  199.52623k   -100.1866   
  204.17379k   -100.2141   
  208.92961k   -100.2450   
  213.79621k   -100.2793   
  218.77616k   -100.3172   
  223.87211k   -100.3587   
  229.08677k   -100.4041   
  234.42288k   -100.4534   
  239.88329k   -100.5067   
  245.47089k   -100.5642   
  251.18864k   -100.6259   
  257.03958k   -100.6919   
  263.02680k   -100.7623   
  269.15348k   -100.8373   
  275.42287k   -100.9169   
  281.83829k   -101.0012   
  288.40315k   -101.0904   
  295.12092k   -101.1845   
  301.99517k   -101.2836   
  309.02954k   -101.3878   
  316.22777k   -101.4973   
  323.59366k   -101.6121   
  331.13112k   -101.7323   
  338.84416k   -101.8580   
  346.73685k   -101.9893   
  354.81339k   -102.1263   
  363.07805k   -102.2692   
  371.53523k   -102.4179   
  380.18940k   -102.5727   
  389.04514k   -102.7336   
  398.10717k   -102.9007   
  407.38028k   -103.0741   
  416.86938k   -103.2539   
  426.57952k   -103.4403   
  436.51583k   -103.6333   
  446.68359k   -103.8331   
  457.08819k   -104.0397   
  467.73514k   -104.2533   
  478.63009k   -104.4740   
  489.77882k   -104.7019   
  501.18723k   -104.9371   
  512.86138k   -105.1798   
  524.80746k   -105.4301   
  537.03180k   -105.6880   
  549.54087k   -105.9538   
  562.34133k   -106.2275   
  575.43994k   -106.5092   
  588.84366k   -106.7992   
  602.55959k   -107.0975   
  616.59500k   -107.4043   
  630.95734k   -107.7198   
  645.65423k   -108.0439   
  660.69345k   -108.3770   
  676.08298k   -108.7191   
  691.83097k   -109.0704   
  707.94578k   -109.4310   
  724.43596k   -109.8011   
  741.31024k   -110.1809   
  758.57758k   -110.5704   
  776.24712k   -110.9698   
  794.32823k   -111.3794   
  812.83052k   -111.7991   
  831.76377k   -112.2293   
  851.13804k   -112.6700   
  870.96359k   -113.1214   
  891.25094k   -113.5837   
  912.01084k   -114.0570   
  933.25430k   -114.5415   
  954.99259k   -115.0373   
  977.23722k   -115.5446   
    1.00000x   -116.0635   
    1.02329x   -116.5943   
    1.04713x   -117.1369   
    1.07152x   -117.6917   
    1.09648x   -118.2587   
    1.12202x   -118.8381   
    1.14815x   -119.4300   
    1.17490x   -120.0346   
    1.20226x   -120.6520   
    1.23027x   -121.2823   
    1.25893x   -121.9257   
    1.28825x   -122.5822   
    1.31826x   -123.2520   
    1.34896x   -123.9352   
    1.38038x   -124.6319   
    1.41254x   -125.3421   
    1.44544x   -126.0660   
    1.47911x   -126.8037   
    1.51356x   -127.5551   
    1.54882x   -128.3204   
    1.58489x   -129.0995   
    1.62181x   -129.8926   
    1.65959x   -130.6996   
    1.69824x   -131.5206   
    1.73780x   -132.3555   
    1.77828x   -133.2043   
    1.81970x   -134.0670   
    1.86209x   -134.9435   
    1.90546x   -135.8337   
    1.94984x   -136.7376   
    1.99526x   -137.6551   
    2.04174x   -138.5860   
    2.08930x   -139.5301   
    2.13796x   -140.4874   
    2.18776x   -141.4576   
    2.23872x   -142.4406   
    2.29087x   -143.4361   
    2.34423x   -144.4438   
    2.39883x   -145.4635   
    2.45471x   -146.4950   
    2.51189x   -147.5378   
    2.57040x   -148.5916   
    2.63027x   -149.6562   
    2.69153x   -150.7311   
    2.75423x   -151.8159   
    2.81838x   -152.9101   
    2.88403x   -154.0134   
    2.95121x   -155.1253   
    3.01995x   -156.2452   
    3.09030x   -157.3727   
    3.16228x   -158.5072   
    3.23594x   -159.6482   
    3.31131x   -160.7951   
    3.38844x   -161.9472   
    3.46737x   -163.1041   
    3.54813x   -164.2650   
    3.63078x   -165.4294   
    3.71535x   -166.5965   
    3.80189x   -167.7658   
    3.89045x   -168.9364   
    3.98107x   -170.1078   
    4.07380x   -171.2791   
    4.16869x   -172.4498   
    4.26580x   -173.6191   
    4.36516x   -174.7862   
    4.46684x   -175.9504   
    4.57088x   -177.1110   
    4.67735x   -178.2673   
    4.78630x   -179.4184   
    4.89779x    179.4362   
    5.01187x    178.2975   
    5.12861x    177.1660   
    5.24807x    176.0426   
    5.37032x    174.9279   
    5.49541x    173.8227   
    5.62341x    172.7277   
    5.75440x    171.6436   
    5.88844x    170.5710   
    6.02560x    169.5108   
    6.16595x    168.4635   
    6.30957x    167.4298   
    6.45654x    166.4105   
    6.60693x    165.4061   
    6.76083x    164.4172   
    6.91831x    163.4445   
    7.07946x    162.4887   
    7.24436x    161.5503   
    7.41310x    160.6299   
    7.58578x    159.7281   
    7.76247x    158.8455   
    7.94328x    157.9827   
    8.12831x    157.1402   
    8.31764x    156.3186   
    8.51138x    155.5185   
    8.70964x    154.7404   
    8.91251x    153.9848   
    9.12011x    153.2524   
    9.33254x    152.5437   
    9.54993x    151.8593   
    9.77237x    151.1997   
   10.00000x    150.5656   
   10.23293x    149.9575   
   10.47129x    149.3762   
   10.71519x    148.8221   
   10.96478x    148.2961   
   11.22018x    147.7988   
   11.48154x    147.3310   
   11.74898x    146.8935   
   12.02264x    146.4870   
   12.30269x    146.1126   
   12.58925x    145.7711   
   12.88250x    145.4635   
   13.18257x    145.1910   
   13.48963x    144.9547   
   13.80384x    144.7559   
   14.12538x    144.5960   
   14.45440x    144.4765   
   14.79108x    144.3989   
   15.13561x    144.3651   
   15.48817x    144.3771   
   15.84893x    144.4368   
   16.21810x    144.5467   
   16.59587x    144.7092   
   16.98244x    144.9271   
   17.37801x    145.2034   
   17.78279x    145.5415   
   18.19701x    145.9449   
   18.62087x    146.4177   
   19.05461x    146.9641   
   19.49845x    147.5889   
   19.95262x    148.2972   
   20.41738x    149.0946   
   20.89296x    149.9871   
   21.37962x    150.9813   
   21.87762x    152.0842   
   22.38721x    153.3030   
   22.90868x    154.6456   
   23.44229x    156.1199   
   23.98833x    157.7341   
   24.54709x    159.4960   
   25.11886x    161.4134   
   25.70396x    163.4930   
   26.30268x    165.7404   
   26.91535x    168.1592   
   27.54229x    170.7506   
   28.18383x    173.5125   
   28.84032x    176.4388   
   29.51209x    179.5190   
   30.19952x   -177.2627   
   30.90295x   -173.9269   
   31.62278x   -170.4990   
   32.35937x   -167.0085   
   33.11311x   -163.4875   
   33.88442x   -159.9692   
   34.67369x   -156.4864   
   35.48134x   -153.0697   
   36.30781x   -149.7461   
   37.15352x   -146.5380   
   38.01894x   -143.4631   
   38.90451x   -140.5336   
   39.81072x   -137.7572   
   40.73803x   -135.1375   
   41.68694x   -132.6743   
   42.65795x   -130.3648   
   43.65158x   -128.2040   
   44.66836x   -126.1854   
   45.70882x   -124.3017   
   46.77351x   -122.5449   
   47.86301x   -120.9069   
   48.97788x   -119.3795   
   50.11872x   -117.9549   
   51.28614x   -116.6254   
   52.48075x   -115.3839   
   53.70318x   -114.2236   
   54.95409x   -113.1382   
   56.23413x   -112.1219   
   57.54399x   -111.1694   
   58.88437x   -110.2756   
   60.25596x   -109.4361   
   61.65950x   -108.6465   
   63.09573x   -107.9033   
   64.56542x   -107.2027   
   66.06934x   -106.5417   
   67.60830x   -105.9173   
   69.18310x   -105.3268   
   70.79458x   -104.7678   
   72.44360x   -104.2381   
   74.13102x   -103.7355   
   75.85776x   -103.2583   
   77.62471x   -102.8046   
   79.43282x   -102.3730   
   81.28305x   -101.9619   
   83.17638x   -101.5700   
   85.11380x   -101.1960   
   87.09636x   -100.8389   
   89.12509x   -100.4976   
   91.20108x   -100.1711   
   93.32543x    -99.8586   
   95.49926x    -99.5591   
   97.72372x    -99.2720   
  100.00000x    -98.9965   
  102.32930x    -98.7320   
  104.71285x    -98.4779   
  107.15193x    -98.2335   
  109.64782x    -97.9984   
  112.20185x    -97.7721   
  114.81536x    -97.5542   
  117.48976x    -97.3441   
  120.22644x    -97.1415   
  123.02688x    -96.9461   
  125.89254x    -96.7574   
  128.82496x    -96.5752   
  131.82567x    -96.3992   
  134.89629x    -96.2290   
  138.03843x    -96.0644   
  141.25375x    -95.9052   
  144.54398x    -95.7510   
  147.91084x    -95.6018   
  151.35612x    -95.4572   
  154.88166x    -95.3171   
  158.48932x    -95.1813   
  162.18101x    -95.0496   
  165.95869x    -94.9218   
  169.82437x    -94.7979   
  173.78008x    -94.6775   
  177.82794x    -94.5607   
  181.97009x    -94.4473   
  186.20871x    -94.3371   
  190.54607x    -94.2300   
  194.98446x    -94.1260   
  199.52623x    -94.0248   
  204.17379x    -93.9264   
  208.92961x    -93.8308   
  213.79621x    -93.7377   
  218.77616x    -93.6472   
  223.87211x    -93.5591   
  229.08677x    -93.4733   
  234.42288x    -93.3898   
  239.88329x    -93.3085   
  245.47089x    -93.2294   
  251.18864x    -93.1523   
  257.03958x    -93.0772   
  263.02680x    -93.0040   
  269.15348x    -92.9328   
  275.42287x    -92.8633   
  281.83829x    -92.7956   
  288.40315x    -92.7296   
  295.12092x    -92.6653   
  301.99517x    -92.6026   
  309.02954x    -92.5414   
  316.22777x    -92.4818   
  323.59366x    -92.4236   
  331.13112x    -92.3669   
  338.84416x    -92.3116   
  346.73685x    -92.2576   
  354.81339x    -92.2050   
  363.07805x    -92.1536   
  371.53523x    -92.1035   
  380.18940x    -92.0546   
  389.04514x    -92.0069   
  398.10717x    -91.9603   
  407.38028x    -91.9149   
  416.86938x    -91.8705   
  426.57952x    -91.8272   
  436.51583x    -91.7850   
  446.68359x    -91.7437   
  457.08819x    -91.7034   
  467.73514x    -91.6641   
  478.63009x    -91.6257   
  489.77882x    -91.5882   
  501.18723x    -91.5516   
  512.86138x    -91.5159   
  524.80746x    -91.4810   
  537.03180x    -91.4469   
  549.54087x    -91.4137   
  562.34133x    -91.3812   
  575.43994x    -91.3494   
  588.84366x    -91.3185   
  602.55959x    -91.2882   
  616.59500x    -91.2586   
  630.95734x    -91.2298   
  645.65423x    -91.2016   
  660.69345x    -91.1740   
  676.08298x    -91.1471   
  691.83097x    -91.1208   
  707.94578x    -91.0952   
  724.43596x    -91.0701   
  741.31024x    -91.0456   
  758.57758x    -91.0217   
  776.24712x    -90.9983   
  794.32823x    -90.9755   
  812.83052x    -90.9531   
  831.76377x    -90.9314   
  851.13804x    -90.9101   
  870.96359x    -90.8893   
  891.25094x    -90.8689   
  912.01084x    -90.8491   
  933.25430x    -90.8297   
  954.99259x    -90.8107   
  977.23722x    -90.7922   
    1.00000g    -90.7741   
y
-----------------------------------------------
 gain=  70.0654 
 ugf= 733.7736k
 phase=-110.0113 

          ***** job concluded
1****** HSPICE -- G-2012.06-SP1 64-BIT (Aug 27 2012) RHEL64 ******              
 ******  
 .title project: three-stage opamp

  ******  job statistics summary tnom=  25.000 temp=  27.000 *****
  
  
 ******  Machine Information  ******
 CPU:
 model name	: Intel(R) Xeon(R) Gold 6226R CPU @ 2.90GHz
 cpu MHz	: 1199.896
  
 OS:
 Linux version 3.10.0-1160.105.1.el7.x86_64 (mockbuild@kbuilder.bsys.centos.org) (gcc version 4.8.5 20150623 (Red Hat 4.8.5-44) (GCC) ) #1 SMP Thu Dec 7 15:39:45 UTC 2023


  ******  HSPICE Threads Information  ******

  Command Line Threads Count :     1
  Available CPU Count        :    64
  Actual Threads Count       :     1


  ******  Circuit Statistics  ******
  # nodes       =       8 # elements   =      23
  # resistors   =       9 # capacitors =       8 # inductors   =       0
  # mutual_inds =       0 # vccs       =       5 # vcvs        =       0
  # cccs        =       0 # ccvs       =       0 # volt_srcs   =       1
  # curr_srcs   =       0 # diodes     =       0 # bjts        =       0
  # jfets       =       0 # mosfets    =       0 # U elements  =       0
  # T elements  =       0 # W elements =       0 # B elements  =       0
  # S elements  =       0 # P elements =       0 # va device   =       0
  # vector_srcs =       0 # N elements =       0


  ******  Runtime Statistics (seconds)  ******

  analysis           time    # points   tot. iter  conv.iter
  op point           0.00           1           3
  ac analysis        0.01         901         901
  readin             0.00
  errchk             0.00
  setup              0.00
  output             0.00


           peak memory used        119.54 megabytes
           total cpu time            0.01 seconds
           total elapsed time        0.02 seconds
           job started at     21:52:11 01/27/2024
           job ended   at     21:52:11 01/27/2024


 lic: total license checkout elapse time:        0.00(s)
